FoamFile
{
    version 2.0;
    format ascii;
    class dictionary;
    object fvSolution;
}

// * * * * * * * * * * * * * * * * * * * * * * * * * * * * * * * * * * * * * //
    SIMPLE
    {
        nNonOrthogonalCorrectors 10;
        pressureImplicitPorousity false;
        pRefCell        0;
        pRefValue       0;
    }
    PISO
    {
        nNonOrthogonalCorrectors 1;
        nCorrectors     4;
        pRefCell        0;
        pRefValue       0;
    }
    PIMPLE
    {
        nNonOrthogonalCorrectors 1;
        nCorrectors     4;
        nOuterCorrectors     1;
        pRefCell        0;
        pRefValue       0;
    }
    solvers
    {
		p
		{
    			solver          GAMG;
    			agglomerator    faceAreaPair;
    			mergeLevels     1;
    			cacheAgglomeration true;
    			nCellsInCoarsestLevel 200;
    			tolerance       1.0e-20;
    			relTol          0.01;
    			smoother        GaussSeidel;
    			nPreSweeps      0;
    			nPostSweeps     2;
    			nFinestSweeps   2;
    			maxIter         20;
		}

                pFinal
                {
                        solver          GAMG;
                        agglomerator    faceAreaPair;
                        mergeLevels     1;
                        cacheAgglomeration true;
                        nCellsInCoarsestLevel 200;
                        tolerance       1.0e-07;
                        relTol          0.0;
                        smoother        GaussSeidel;
                        nPreSweeps      0;
                        nPostSweeps     2;
                        nFinestSweeps   2;
                        maxIter         20;
                }


/*		U
		{
    			solver          smoothSolver;
    			smoother        GaussSeidel;
    			tolerance       1.0e-08;
    			relTol          0.0;
    			minIter         1;
		}

*/

    		U
		{
        		solver          PBiCG;
		        preconditioner  DILU;
		        tolerance       1e-08;
		        relTol          0.0;
                        //minIter         1;
    			maxIter         100;
    		}

                UFinal
                {
                        solver          PBiCG;
                        preconditioner  DILU;
                        tolerance       1e-08;
                        relTol          0.0;
                        //minIter         1;
    			maxIter         100;
                }

                nuTilda
                {
                        solver          PBiCG;
                        preconditioner  DILU;
                        tolerance       1e-08;
                        relTol          0.0;
                        //minIter         1;
                        maxIter         100;
                }

                nuTildaFinal
                {
                        solver          PBiCG;
                        preconditioner  DILU;
                        tolerance       1e-08;
                        relTol          0.0;
                        //minIter         1;
    			maxIter         100;
                }
                
                cellMotionUx
                {
                        solver          PCG;
                        preconditioner  DIC;
                        tolerance       1e-08;
                        relTol          0;
                }


    }
    relaxationFactors
    {
        default         0.7;
        p               0.7;
        U               0.7;
        nuTilda         0.7;
    }
